Version 4
SHEET 1 880 680
WIRE 176 -208 -80 -208
WIRE 208 -208 176 -208
WIRE 480 -208 256 -208
WIRE 544 -208 480 -208
WIRE 544 -192 544 -208
WIRE -80 -64 -80 -208
WIRE 368 -64 -80 -64
WIRE 480 -32 480 -208
WIRE 480 -32 32 -32
WIRE -80 112 -80 -64
WIRE 32 112 32 -32
WIRE 368 112 368 -64
WIRE 480 112 480 -32
WIRE 32 192 -80 192
WIRE 176 192 32 192
WIRE 368 192 256 192
WIRE 480 192 368 192
FLAG 544 -192 0
SYMBOL res -96 96 R0
SYMATTR InstName R1
SYMATTR Value 50
SYMBOL res 16 96 R0
SYMATTR InstName R2
SYMATTR Value 50
SYMBOL res 352 96 R0
SYMATTR InstName R3
SYMATTR Value 50
SYMBOL res 464 96 R0
SYMATTR InstName R4
SYMATTR Value 50
SYMBOL res 160 176 M90
WINDOW 0 0 56 VBottom 2
WINDOW 3 32 56 VTop 2
SYMATTR InstName R
SYMATTR Value 50
SYMBOL voltage 160 -208 R270
WINDOW 0 32 56 VTop 2
WINDOW 3 -32 56 VBottom 2
SYMATTR InstName V1
SYMATTR Value 5
TEXT 406 234 Left 2 !.dc V1 0 10 10ms
