Version 4
SHEET 1 1116 680
WIRE 336 -368 128 -368
WIRE 736 -368 416 -368
WIRE 864 -368 736 -368
WIRE 864 -336 864 -368
WIRE 128 -240 128 -368
WIRE 128 32 128 -176
WIRE 368 32 128 32
WIRE 736 32 736 -368
WIRE 736 32 448 32
WIRE 128 128 128 32
WIRE 128 320 128 192
WIRE 304 320 128 320
WIRE 736 320 736 32
WIRE 736 320 384 320
FLAG 864 -336 0
SYMBOL res 400 304 R90
WINDOW 0 0 56 VBottom 2
WINDOW 3 32 56 VTop 2
SYMATTR InstName R3
SYMATTR Value 0.01
SYMBOL cap 112 128 R0
SYMATTR InstName C1
SYMATTR Value 6p
SYMBOL cap 112 -240 R0
SYMATTR InstName C3
SYMATTR Value 500nF
SYMBOL res 464 16 R90
WINDOW 0 0 56 VBottom 2
WINDOW 3 32 56 VTop 2
SYMATTR InstName R4
SYMATTR Value 10
SYMBOL voltage 320 -368 R270
WINDOW 0 32 56 VTop 2
WINDOW 3 -32 56 VBottom 2
WINDOW 123 0 0 Left 0
WINDOW 39 0 0 Left 0
SYMATTR InstName V1
SYMATTR Value PWL(0 0 5.0ms 0 5.1ms -2.5 25ms -2.5 25.2ms 2.5 45ms 2.5 45.1ms 0)
TEXT 808 344 Left 2 !.tran 0 50ms 0 0.001ms
